LAMMPS (17 Nov 2016)
#Ramin Khajeh
#05/14/17
#Lammps simulation of WCA particles in 2d
#
#____initialize the system
clear

# particle diameter is set to 1.0
# sigma is set to 1.0
variable       scaled_pack_frac equal 0.60
variable       boxL equal 20
variable       N equal 0.6*20*20
variable       T equal 1.0

units          lj
dimension      2
boundary       p p p
atom_style     atomic
atom_modify    map array

###___create atoms
lattice        sq 0.3111 origin 0.0 0.0 0.0
Lattice spacing in x,y,z = 1.79287 1.79287 1.79287
region         box block 0 20 0 20 -0.1 0.1 units box
create_box     1 box
Created orthogonal box = (0 0 -0.1) to (20 20 0.1)
create_atoms   1 box
Created 144 atoms
mass           1 1.0
fix            2d all enforce2d
create_atoms   1 random 240 324523 box
Created 240 atoms

###___Define Interatomic Potential
pair_style     lj/cut 1.1225
pair_modify    shift yes
pair_coeff     * * 1.0 1.0 1.1225

neighbor       0.30 bin
neigh_modify   delay 0 every 1 check yes

##___Define Settings
#compute        eng all pe/atom
fix            integrator all nve
fix            dynamics all langevin 1 1 1.0 60284
min_style      fire

minimize       1e-4 1e-4 1000 1000
  1 neighbor list requests
  update every 1 steps, delay 0 steps, check yes
Step Temp E_pair E_mol TotEng Press
0            0 1.3514524e+13            0 1.3514524e+13 7.7843661e+13
Loop time of 0.018301 on 1 procs for 188 steps with 384 atoms

Minimization stats:
  Stopping criterion = energy tolerance
  Energy initial, next-to-last, final =
  Force two-norm initial, final = 9.54947e+17 661.853
  Force max component initial, final = 5.12917e+17 200.537
  Final line search alpha, max atom move = 0 0
  Iterations, force evaluations = 188 188

reset_timestep 0

compute        rdf all rdf 200
fix            saverdf all ave/time 100 100 10000 c_rdf[1] c_rdf[2] file wca.rdf mode vector
dump           dump_1 all atom 1 final.lammpstrj
dump           dump_2 all atom 1 traj.xyz
dump_modify    dump_2 every 10000 sort id first no

thermo         100
timestep       0.005
run            10000
  2 neighbor list requests
  update every 1 steps, delay 0 steps, check yes
Step Temp E_pair E_mol TotEng Press
0   0.27522744    3.6155884            0    3.8900991    34.616959
Averages over the last 51 of 101 rows, steps 5000 to 10000:
Temp E_pair E_mol TotEng Press
1.00535 0.988231 0 1.99096 13.0454
Loop time of 6.80538 on 1 procs for 10000 steps with 384 atoms
